Version 4
SHEET 1 1076 680
WIRE 448 -96 368 -96
WIRE 288 -16 288 -96
WIRE 448 16 448 -96
WIRE 96 48 16 48
WIRE 240 48 176 48
WIRE 16 112 16 48
WIRE 16 224 16 192
WIRE 288 224 288 48
WIRE 288 224 16 224
WIRE 448 224 448 96
WIRE 448 224 288 224
WIRE 288 256 288 224
FLAG 288 256 0
SYMBOL voltage 16 96 R0
WINDOW 123 0 0 Left 0
WINDOW 39 0 0 Left 0
SYMATTR InstName V1
SYMATTR Value PULSE(0 10 1m 1u 1u 3m 20m 5)
SYMBOL voltage 448 0 R0
WINDOW 123 0 0 Left 0
WINDOW 39 0 0 Left 0
SYMATTR InstName V2
SYMATTR Value SINE(0 100 50 0 0 20m 5)
SYMBOL res 192 32 R90
WINDOW 0 0 56 VBottom 2
WINDOW 3 32 56 VTop 2
SYMATTR InstName R1
SYMATTR Value 100
SYMBOL res 384 -112 R90
WINDOW 0 0 56 VBottom 2
WINDOW 3 32 56 VTop 2
SYMATTR InstName R2
SYMATTR Value 10
SYMBOL Misc\\SCR 272 -16 R0
SYMATTR InstName U1
SYMATTR Value TN3050H-12LY
TEXT -120 -192 Left 2 !.inc C:\\Program Files\\LTC\\LTspiceXVII\\lib\\high-temperature_scr_pspice\\st_high-temperature_scr.lib
TEXT -122 280 Left 2 !.tran 100ms
